
-------------------------------------
Executed at 2018-12-04 20:06:17
Ran for 0.018464
Input file: data/triceratops_2000.obj
Output file: data/charts.obj
Desired Charts: 20, active charts: 1282
Cost threshold: 4000

-------------------------------------
Executed at 2018-12-04 20:11:41
Ran for 0.0748071 s
Input file: data/triceratops_2000.obj
Output file: data/charts.obj
Vertices: 668 , faces1332
Desired Charts: 20, active charts: 20
Cost threshold: 4e+07

-------------------------------------
Executed at 2018-12-04 20:15:40
Ran for 182.208 s
Input file: data/dinosaur.obj
Output file: data/charts.obj
Vertices: 27727 , faces: 55550
Desired Charts: 100, active charts: 150
Cost threshold: 4e+11

-------------------------------------
Executed at 2018-12-04 20:25:56
Ran for 420.366 s
Input file: data/dinosaur.obj
Output file: data/charts.obj
Vertices: 27727 , faces: 55550
Desired Charts: 50, active charts: 50
Cost threshold: 1.79769e+308

saved as /home/hoqe4365/Desktop/lamure/lamure/install/bin/data/chart_demos/dino_2018-12-04 20:25:56.obj


-------------------------------------
Executed at 2018-12-10 11:43:34
Ran for 127.345 s
Input file: data/triceratops_copy.obj
Output file: data/charts.obj
Vertices: 16781 , faces: 33558
Desired Charts: 40, active charts: 40
Cost threshold: 1.79769e+308

-------------------------------------
Executed at 2018-12-10 18:47:45
Ran for 0.669593 s
Input file: ../../data/bunny.obj
Output file: data/charts.obj
Vertices: 34834 , faces: 69451
Desired Charts: 10, active charts: 69451
Cost threshold: 1.79769e+308

-------------------------------------
Executed at 2018-12-10 19:00:14
Ran for 0.6691 s
Input file: ../../data/bunny.obj
Output file: data/charts.obj
Vertices: 34834 , faces: 69451
Desired Charts: 20, active charts: 69451
Cost threshold: 1.79769e+308

-------------------------------------
Executed at 2018-12-10 19:01:20
Ran for 0.673726 s
Input file: ../../data/bunny.obj
Output file: data/charts.obj
Vertices: 34834 , faces: 69451
Desired Charts: 20, active charts: 69451
Cost threshold: 1.79769e+308

-------------------------------------
Executed at 2018-12-10 19:02:03
Ran for 0.676958 s
Input file: ../../data/bunny.obj
Output file: data/charts.obj
Vertices: 34834 , faces: 69451
Desired Charts: 20, active charts: 69451
Cost threshold: 1.79769e+308

-------------------------------------
Executed at 2018-12-10 19:03:02
Ran for 0.714498 s
Input file: ../../data/bunny.obj
Output file: data/charts.obj
Vertices: 34834 , faces: 69451
Desired Charts: 20, active charts: 69451
Cost threshold: 1.79769e+308

-------------------------------------
Executed at 2018-12-10 19:59:06
Ran for 0 m 0 s
Input file: data/triceratops_2000.obj
Output file: data/charts.obj
Vertices: 668 , faces: 1332
Desired Charts: 100, active charts: 100
Cost threshold: 1.79769e+308

-------------------------------------
Executed at 2018-12-10 20:06:54
Ran for 6 m 41 s
Input file: ../../data/bunny.obj
Output file: data/charts.obj
Vertices: 34834 , faces: 69451
Desired Charts: 100, active charts: 100
Cost threshold: 1.79769e+308

-------------------------------------
Executed at 2018-12-10 20:12:52
Ran for 0 m 0 s
Input file: data/triceratops_2000.obj
Output file: data/charts.obj
Vertices: 668 , faces: 1332
Desired Charts: 20, active charts: 20
Cost threshold: 1.79769e+308

-------------------------------------
Executed at 2018-12-10 20:13:28
Ran for 0 m 0 s
Input file: data/triceratops_2000.obj
Output file: data/charts.obj
Vertices: 668 , faces: 1332
Desired Charts: 20, active charts: 1328
Cost threshold: 1.79769e+308

-------------------------------------
Executed at 2018-12-10 20:16:24
Ran for 0 m 0 s
Input file: data/triceratops_2000.obj
Output file: data/charts.obj
Vertices: 668 , faces: 1332
Desired Charts: 20, active charts: 1328
Cost threshold: 1.79769e+308

-------------------------------------
Executed at 2018-12-10 20:19:19
Ran for 0 m 0 s
Input file: data/triceratops_2000.obj
Output file: data/charts.obj
Vertices: 668 , faces: 1332
Desired Charts: 20, active charts: 1328
Cost threshold: 1.79769e+308

-------------------------------------
Executed at 2018-12-10 20:40:25
Ran for 0 m 0 s
Input file: data/triceratops_2000.obj
Output file: data/charts.obj
Vertices: 668 , faces: 1332
Desired Charts: 20, active charts: 1
Cost threshold: 1.79769e+308

-------------------------------------
Executed at 2018-12-10 20:42:54
Ran for 0 m 0 s
Input file: data/triceratops_2000.obj
Output file: data/charts.obj
Vertices: 668 , faces: 1332
Desired Charts: 20, active charts: 1
Cost threshold: 1.79769e+308

-------------------------------------
Executed at 2018-12-10 20:45:58
Ran for 0 m 0 s
Input file: data/triceratops_2000.obj
Output file: data/charts.obj
Vertices: 668 , faces: 1332
Desired Charts: 20, active charts: 1
Cost threshold: 1.79769e+308

-------------------------------------
Executed at 2018-12-10 20:49:36
Ran for 0 m 0 s
Input file: data/triceratops_2000.obj
Output file: data/charts.obj
Vertices: 668 , faces: 1332
Desired Charts: 20, active charts: 1
Cost threshold: 1.79769e+308

-------------------------------------
Executed at 2018-12-10 20:53:24
Ran for 0 m 0 s
Input file: data/triceratops_2000.obj
Output file: data/charts.obj
Vertices: 668 , faces: 1332
Desired Charts: 20, active charts: 1
Cost threshold: 1.79769e+308

-------------------------------------
Executed at 2018-12-10 20:54:49
Ran for 0 m 0 s
Input file: data/triceratops_2000.obj
Output file: data/charts.obj
Vertices: 668 , faces: 1332
Desired Charts: 20, active charts: 1
Cost threshold: 1.79769e+308

-------------------------------------
Executed at 2018-12-10 20:55:22
Ran for 0 m 0 s
Input file: data/triceratops_2000.obj
Output file: data/charts.obj
Vertices: 668 , faces: 1332
Desired Charts: 20, active charts: 1
Cost threshold: 1.79769e+308

-------------------------------------
Executed at 2018-12-10 20:57:28
Ran for 0 m 0 s
Input file: data/triceratops_2000.obj
Output file: data/charts.obj
Vertices: 668 , faces: 1332
Desired Charts: 20, active charts: 20
Cost threshold: 1.79769e+308

-------------------------------------
Executed at 2018-12-10 21:06:45
Ran for 0 m 1 s
Input file: data/triceratops_2000.obj
Output file: data/charts.obj
Vertices: 668 , faces: 1332
Desired Charts: 20, active charts: 20
Cost threshold: 1.79769e+308

-------------------------------------
Executed at 2018-12-10 21:08:54
Ran for 0 m 1 s
Input file: data/triceratops_2000.obj
Output file: data/charts.obj
Vertices: 668 , faces: 1332
Desired Charts: 20, active charts: 20
Cost threshold: 1.79769e+308

saved as /home/hoqe4365/Desktop/lamure/lamure/install/bin/data/chart_demos/nbr_rule_1.obj


-------------------------------------
Executed at 2018-12-11 09:32:55
Ran for 23 m 37 s
Input file: data/triceratops_copy.obj
Output file: data/charts.obj
Vertices: 16781 , faces: 33558
Desired Charts: 100, active charts: 100
Cost threshold: 1.79769e+308

-------------------------------------
Executed at 2018-12-11 09:35:39
Ran for 0 m 9 s
Input file: data/triceratops_copy.obj
Output file: data/charts.obj
Vertices: 16781 , faces: 33558
Desired Charts: 100, active charts: 33348
Cost threshold: 1.79769e+308

-------------------------------------
Executed at 2018-12-11 09:41:31
Ran for 0 m 0 s
Input file: data/triceratops_2000.obj
Output file: data/charts.obj
Vertices: 668 , faces: 1332
Desired Charts: 20, active charts: 1303
Cost threshold: 1.79769e+308

-------------------------------------
Executed at 2018-12-11 09:45:36
Ran for 0 m 0 s
Input file: data/triceratops_2000.obj
Output file: data/charts.obj
Vertices: 668 , faces: 1332
Desired Charts: 20, active charts: 1
Cost threshold: 1.79769e+308

-------------------------------------
Executed at 2018-12-11 09:46:02
Ran for 0 m 0 s
Input file: data/triceratops_2000.obj
Output file: data/charts.obj
Vertices: 668 , faces: 1332
Desired Charts: 20, active charts: 1
Cost threshold: 1.79769e+308

-------------------------------------
Executed at 2018-12-11 09:48:53
Ran for 0 m 0 s
Input file: data/triceratops_2000.obj
Output file: data/charts.obj
Vertices: 668 , faces: 1332
Desired Charts: 20, active charts: 1303
Cost threshold: 1.79769e+308

-------------------------------------
Executed at 2018-12-11 09:50:52
Ran for 0 m 0 s
Input file: data/triceratops_2000.obj
Output file: data/charts.obj
Vertices: 668 , faces: 1332
Desired Charts: 20, active charts: 20
Cost threshold: 1.79769e+308

-------------------------------------
Executed at 2018-12-11 09:58:39
Ran for 7 m 39 s
Input file: data/triceratops_copy.obj
Output file: data/charts.obj
Vertices: 16781 , faces: 33558
Desired Charts: 100, active charts: 100
Cost threshold: 1.79769e+308

-------------------------------------
Executed at 2018-12-14 13:53:22
Ran for 0 m 0 s
Input file: data/triceratops_2000.obj
Output file: data/charts.obj
Vertices: 668 , faces: 1332
Desired Charts: 10, active charts: 10
Cost threshold: 1.79769e+308

-------------------------------------
Executed at 2019-01-08 11:55:19
Ran for 0 m 0 s
Input file: ../../data/geometric/cylinder_124.obj
Output file: data/charts.obj
Vertices: 64 , faces: 124
Desired Charts: 10, active charts: 10
Cost threshold: 1.79769e+308
Cluster settings: e_fit: 1, e_ori: 0, e_shape1
